/*--------------------------------*- C++ -*----------------------------------*\
  =========                 |
  \\      /  F ield         | OpenFOAM: The Open Source CFD Toolbox
   \\    /   O peration     | Website:  https://openfoam.org
    \\  /    A nd           | Version:  8
     \\/     M anipulation  |
\*---------------------------------------------------------------------------*/
FoamFile
{
    version     2.0;
    format      ascii;
    class       dictionary;
    location    "constant";
    object      chemistryProperties.gas;
}
// * * * * * * * * * * * * * * * * * * * * * * * * * * * * * * * * * * * * * //

chemistryType
{
    solver  EulerImplicit;
}

chemistry   off;

initialChemicalTimeStep 1e-8;

EulerImplicitCoeffs
{
    cTauChem                1;
    equilibriumRateLimiter  off;
}

odeCoeffs
{
    solver      Rosenbrock43;
    absTol      1e-10;
    relTol      0.01;
}

#include "reactions.gas"

// ************************************************************************* //
